Circuit: * C:\Users\djsce.student\MATLAB\Projects\RIA_PSY\Draft2.asc

Fatal Error: Multiple instances of "Va"
