Circuit: * C:\Users\djsce.student\MATLAB\Projects\RIA_PSY\exp6b.asc

Direct Newton iteration for .op point succeeded.

Date: Thu Mar 14 14:53:36 2024
Total elapsed time: 0.125 seconds.

tnom = 27
temp = 27
method = modified trap
totiter = 2100
traniter = 2088
tranpoints = 1045
accept = 1045
rejected = 0
matrix size = 15
fillins = 3
solver = Normal
Avg thread counts: 2.4/1.9/1.9/1.5
Matrix Compiler1: 882 bytes object code size  0.2/0.2/[0.2]
Matrix Compiler2: off  [0.1]/0.2/0.2

