Circuit: * C:\Users\djsce.student\MATLAB\Projects\RIA_PSY\exp6a.asc

Direct Newton iteration for .op point succeeded.

Date: Thu Mar 14 14:16:13 2024
Total elapsed time: 0.097 seconds.

tnom = 27
temp = 27
method = trap
totiter = 3
traniter = 0
tranpoints = 0
accept = 0
rejected = 0
matrix size = 5
fillins = 0
solver = Normal
Avg thread counts: 12.0/0.0/12.0/12.0
Matrix Compiler1: 186 bytes object code size
Matrix Compiler2: 309 bytes object code size
